Version 4
SHEET 1 1964 680
WIRE -112 -80 -112 -96
WIRE 720 -64 640 -64
WIRE 912 -64 800 -64
WIRE 1552 -48 1472 -48
WIRE 1744 -48 1632 -48
WIRE -112 16 -112 0
WIRE 240 32 240 -96
WIRE 368 32 320 32
WIRE 512 32 368 32
WIRE 640 32 640 -64
WIRE 640 32 592 32
WIRE 736 32 640 32
WIRE 912 48 912 -64
WIRE 912 48 800 48
WIRE 1024 48 912 48
WIRE 1200 48 1088 48
WIRE 1344 48 1200 48
WIRE 1472 48 1472 -48
WIRE 1472 48 1424 48
WIRE 1568 48 1472 48
WIRE 736 64 704 64
WIRE 1744 64 1744 -48
WIRE 1744 64 1632 64
WIRE 1856 64 1744 64
WIRE -16 80 -16 64
WIRE 96 80 96 64
WIRE 1568 80 1536 80
WIRE -16 96 -16 80
WIRE 96 96 96 80
WIRE 768 96 768 80
WIRE 1200 96 1200 48
WIRE 1600 112 1600 96
WIRE 368 144 368 32
WIRE -16 272 -80 272
WIRE 96 272 -16 272
WIRE 368 272 368 208
WIRE 704 272 704 64
WIRE 704 272 368 272
WIRE 1200 272 1200 176
WIRE 1200 272 704 272
WIRE 1536 272 1536 80
WIRE 1536 272 1200 272
WIRE 368 320 368 272
FLAG -80 272 0
FLAG -16 64 +
FLAG 96 64 -
FLAG -112 16 0
FLAG 768 16 +
FLAG 768 96 -
FLAG 240 -96 IN
IOPIN 240 -96 BiDir
FLAG 1856 64 OUT
IOPIN 1856 64 BiDir
FLAG 368 320 GND
IOPIN 368 320 BiDir
FLAG 1600 32 +
FLAG 1600 112 -
FLAG -16 80 V+
IOPIN -16 80 BiDir
FLAG 96 80 V-
IOPIN 96 80 BiDir
SYMBOL cap 384 208 R180
WINDOW 0 24 56 Left 2
WINDOW 3 24 8 Left 2
SYMATTR InstName C2
SYMATTR Value 0.2µ
SYMBOL res 336 16 R90
WINDOW 0 0 56 VBottom 2
WINDOW 3 32 56 VTop 2
SYMATTR InstName R1
SYMATTR Value 1k
SYMBOL voltage -16 176 R0
WINDOW 123 0 0 Left 0
WINDOW 39 0 0 Left 0
SYMATTR InstName V1
SYMATTR Value 5
SYMBOL voltage 96 288 R180
WINDOW 0 24 96 Left 2
WINDOW 3 24 16 Left 2
WINDOW 123 0 0 Left 0
WINDOW 39 0 0 Left 0
SYMATTR InstName V2
SYMATTR Value 5
SYMBOL CURRENT -112 0 M180
WINDOW 0 33 77 Left 2
WINDOW 3 24 0 Left 2
SYMATTR InstName I1
SYMATTR Value AC 1.
SYMBOL Opamps\\LT6015 768 48 R0
SYMATTR InstName U1
SYMBOL res 608 16 R90
WINDOW 0 0 56 VBottom 2
WINDOW 3 32 56 VTop 2
SYMATTR InstName R2
SYMATTR Value 1k
SYMBOL res 816 -80 R90
WINDOW 0 0 56 VBottom 2
WINDOW 3 32 56 VTop 2
SYMATTR InstName R3
SYMATTR Value 20
SYMBOL cap 1088 32 R90
WINDOW 0 0 32 VBottom 2
WINDOW 3 32 32 VTop 2
SYMATTR InstName C1
SYMATTR Value 20µ
SYMBOL res 1184 80 R0
SYMATTR InstName R4
SYMATTR Value 10k
SYMBOL Opamps\\LT6015 1600 64 R0
SYMATTR InstName U2
SYMBOL res 1440 32 R90
WINDOW 0 0 56 VBottom 2
WINDOW 3 32 56 VTop 2
SYMATTR InstName R5
SYMATTR Value 20
SYMBOL res 1648 -64 R90
WINDOW 0 0 56 VBottom 2
WINDOW 3 32 56 VTop 2
SYMATTR InstName R6
SYMATTR Value 5k
TEXT -128 -136 Left 2 !;ac oct 50 0.01 100k
TEXT 576 304 Left 2 ;The gain should be modofied after testing with square waves with various frrequencies. \nThe max hight out put should not be cliped
