Version 4
SHEET 1 880 680
WIRE -32 96 -96 96
WIRE 192 96 16 96
WIRE -96 112 -96 96
WIRE 16 112 16 96
WIRE 192 112 192 96
WIRE -32 128 -32 96
WIRE 0 128 -32 128
WIRE 0 160 -32 160
WIRE -96 208 -96 192
WIRE -64 208 -96 208
WIRE -32 208 -32 160
WIRE -32 208 -64 208
WIRE 16 224 16 176
WIRE 16 336 16 304
WIRE 112 336 16 336
WIRE 192 336 192 192
WIRE 192 336 112 336
FLAG 112 336 0
FLAG -64 208 0
SYMBOL SpecialFunctions\\varistor 32 208 M180
SYMATTR InstName A1
SYMBOL voltage -96 96 R0
WINDOW 123 0 0 Left 0
WINDOW 39 0 0 Left 0
SYMATTR InstName V1
SYMATTR Value 5
SYMBOL voltage 192 96 R0
WINDOW 123 0 0 Left 0
WINDOW 39 0 0 Left 0
SYMATTR InstName V2
SYMATTR Value 10
SYMBOL res 0 208 R0
SYMATTR InstName R1
SYMATTR Value 1k
TEXT -200 248 Left 2 !.dc V1 0 5 0.1
