Version 4
SHEET 1 928 680
WIRE 304 32 48 32
WIRE 48 48 48 32
WIRE 112 48 48 48
WIRE 48 64 48 48
WIRE 48 64 -144 64
WIRE 112 80 112 48
WIRE 304 128 304 32
WIRE 48 144 48 128
WIRE 48 144 -144 144
WIRE 48 160 48 144
WIRE 112 240 112 144
WIRE 112 240 48 240
WIRE 48 272 48 240
WIRE 48 416 48 352
WIRE 304 416 304 208
WIRE 304 416 48 416
FLAG 304 416 0
SYMBOL varactor 64 128 R180
WINDOW 0 24 64 Left 2
WINDOW 3 24 0 Left 2
SYMATTR InstName D1
SYMATTR Value KV1471
SYMBOL voltage -144 48 R0
WINDOW 123 0 0 Left 0
WINDOW 39 0 0 Left 0
SYMATTR InstName V1
SYMATTR Value 2
SYMBOL res 32 256 R0
SYMATTR InstName R1
SYMATTR Value 3831
SYMBOL Misc\\signal 304 112 R0
WINDOW 123 0 0 Left 0
WINDOW 39 0 0 Left 0
SYMATTR InstName V2
SYMATTR Value SINE(0 5 261)
SYMBOL cap 96 80 R0
SYMATTR InstName C1
SYMATTR Value 1µ
SYMBOL res 32 144 R0
SYMATTR InstName R2
SYMATTR Value 50
TEXT -280 264 Left 2 !;dc V1 0 5 0.1
TEXT -272 312 Left 2 !.tran 10ms
